/*--------------------------------*- C++ -*----------------------------------*\
  =========                 |
  \\      /  F ield         | OpenFOAM: The Open Source CFD Toolbox
   \\    /   O peration     | Website:  https://openfoam.org
    \\  /    A nd           | Version:  8
     \\/     M anipulation  |
\*---------------------------------------------------------------------------*/
FoamFile
{
    version     2.0;
    format      ascii;
    class       dictionary;
    location    "system";
    object      fvSolution;
}
// * * * * * * * * * * * * * * * * * * * * * * * * * * * * * * * * * * * * * //

solvers
{
    "rho.*"
    {
        solver          PCG;
        preconditioner  DIC;
        tolerance       0;
        relTol          0;
    }

    p_rgh
    {
        solver          PCG;
        preconditioner  DIC;
        tolerance       1e-8;
        relTol          0.01;
    }

    p_rghFinal
    {
        $p_rgh;
        relTol          0;
    }

    "(U|h|e|k|epsilon|R)"
    {
        solver          PBiCGStab;
        preconditioner  DILU;
        tolerance       1e-6;
        relTol          0.1;
    }

    "(U|h|e|k|epsilon|R)Final"
    {
        $U;
        relTol          0;
    }
}

PIMPLE
{
    momentumPredictor yes;
    nOuterCorrectors 3;
    nCorrectors     2;
    nNonOrthogonalCorrectors 0;
    
    residualControl
    {
        U     1e-6;
        h     1e-7;
        p_rgh 1e-5;
    }
}
relaxationFactors
{
    // ????? under-relaxation(???????)
    fields
    {
        p_rgh   0.3;
        rho     0.3;
    }

    // ??????? under-relaxation(???h????)
    equations
    {
        U           0.5;
        h           0.5;
        k           0.5;
        epsilon     0.5;
        // ?????? kOmegaSST,???:
        // k       0.5;
        // omega   0.5;
    }
}


// ************************************************************************* //
